tests/resources/cases/ieee59_convert_to_zil_to_solve.raw
 0, 100.00, 32, 0, 0 , 60 / EXPORT BY PSAT
59 Bus Test Case For Power System Stability Analysis
Medium Load Level
     1,'ABELS-GN    ',  13.80,2,   1,   1,   1,1.00000,  -4.6083
     2,'ABELSS-B    ', 138.00,1,   1,   1,   1,0.99511, -10.1497
     3,'ABELS-GN    ',  13.80,2,   1,   1,   1,1.00000,  -4.6083
     4,'ABELS-GN    ',  13.80,2,   1,   1,   1,1.00000,  -4.4287
     5,'ABELS-GN    ',  13.80,2,   1,   1,   1,1.00000,  -4.4287
     6,'ADAMS-GN    ',  13.80,2,   1,   1,   1,1.00266,  -4.8835
     7,'ADAMSS-B    ', 138.00,1,   1,   1,   1,0.99502, -10.4800
     8,'ADAMS-GN    ',  13.80,2,   1,   1,   1,1.00000,  -4.8686
     9,'ADAMS-GN    ',  13.80,2,   1,   1,   1,1.00000,  -4.7585
    10,'ADAMS-GN    ',  13.80,2,   1,   1,   1,1.12319,  -5.8982
    11,'ADLER.BS    ', 138.00,1,   1,   1,   1,0.99315,  -5.9221
    12,'AGRIC.BS    ', 138.00,1,   1,   1,   1,0.98058, -12.3045
    13,'AIKEN.BS    ', 138.00,1,   1,   1,   1,0.97121, -14.5063
    14,'ALBER.BS    ', 138.00,1,   1,   1,   1,0.98286, -15.6323
    15,'ALDER-GN    ',  15.50,2,   1,   1,   1,1.00000,  -0.1434
    16,'ALDER.BS    ', 138.00,1,   1,   1,   1,0.98783,  -5.3154
    17,'ALDER-GN    ',  15.50,2,   1,   1,   1,1.00000,  -0.1434
    18,'ALDER-GN    ',  15.50,2,   1,   1,   1,1.00000,   1.1527
    19,'ALGER.BS    ', 138.00,1,   1,   1,   1,0.95297, -12.3242
    20,'ALLUS.BS    ', 138.00,1,   1,   1,   1,0.99333, -10.5339
    21,'ALLEN.BS    ', 138.00,1,   1,   1,   1,0.99234, -13.7227
    22,'ANNAS.BS    ', 230.00,1,   1,   1,   1,0.98701,  -7.7359
    23,'ARCHE.BS    ', 230.00,1,   1,   1,   1,0.97618,  -6.0514
    24,'ARNES-GN    ',  20.00,2,   1,   1,   1,1.00233,  -3.6747
    25,'ARNES.BS    ', 230.00,1,   1,   1,   1,0.99174,  -4.5029
    26,'ARNES-GN    ',  20.00,2,   1,   1,   1,1.00000,  -3.6728
    27,'ARNES-GN    ',  20.00,2,   1,   1,   1,1.00000,  -4.1158
    28,'ARNOL.BS    ', 230.00,1,   1,   1,   1,1.01124,  -6.3713
    29,'ARTHU-GN    ',  13.80,2,   1,   1,   1,1.01795,  13.1343
    30,'ARTHU-BU    ', 230.00,1,   1,   1,   1,0.98912,   6.6458
    31,'ARTHU-GN    ',  13.80,2,   1,   1,   1,1.00000,  13.2512
    32,'ARTHU-GN    ',  13.80,2,   1,   1,   1,1.00000,  13.2512
    33,'ARTHU-GN    ',  13.80,2,   1,   1,   1,1.00000,  13.2512
    34,'ARTHU-GN    ',  13.80,2,   1,   1,   1,1.00000,  13.2512
    35,'ARTHU-GN    ',  18.00,2,   1,   1,   1,1.00000,  13.2963
    36,'ASSER-GN    ',  18.00,2,   1,   1,   1,1.00000,  11.3710
    37,'ASSERS-B    ', 230.00,1,   1,   1,   1,0.97894,   4.5696
    38,'ASTON.BS    ', 230.00,1,   1,   1,   1,0.98348,   8.6725
    39,'ASTOR-GN    ',  18.00,2,   1,   1,   1,1.00000,  13.1755
    40,'ASTORS-B    ', 230.00,1,   1,   1,   1,0.98582,   9.5587
    41,'ATTAR.BS    ', 230.00,1,   1,   1,   1,0.98403,   3.7904
    42,'ATTIL.BS    ', 230.00,1,   1,   1,   1,0.99317,   4.2803
    43,'ATTLE-GN    ',  18.00,2,   1,   1,   1,1.00000,  12.8902
    44,'ATTLES-B    ', 230.00,1,   1,   1,   1,0.99420,   9.9541
    45,'AUBREBS-    ',  13.80,2,   1,   1,   1,1.00000,  25.4449
    46,'AUBREBS-    ',  13.80,2,   1,   1,   1,1.00000,  24.7528
    47,'AUBRES-B    ', 230.00,1,   1,   1,   1,0.99271,  15.1435
    48,'AUBREBS-    ',  13.80,2,   1,   1,   1,1.00000,  29.0420
    49,'AUBREBS-    ',  13.80,2,   1,   1,   1,1.00000,  28.3286
    50,'AUBRE.BS    ', 230.00,1,   1,   1,   1,1.00041,  18.4950
    51,'AUBREBS-    ',  13.80,2,   1,   1,   1,1.00000,  22.9507
    52,'AUSTE-GN    ',  18.00,2,   1,   1,   1,1.00000,  10.9241
    53,'AUSTE.BS    ', 230.00,1,   1,   1,   1,0.99688,   4.5545
    54,'AUSTE-GN    ',  18.00,2,   1,   1,   1,1.00000,  10.9241
    55,'AUSTE-GN    ',  24.00,2,   1,   1,   1,1.00000,   8.3166
    56,'AVERYS-B    ', 230.00,1,   1,   1,   1,0.97364,   1.8955
    57,'BARTOS-B    ', 230.00,3,   2,   2,   1,1.00000,   0.0000
    58,'AUBREXFG    ', 230.00,1,   1,   1,   1,1.00527,  15.1435
    59,'AUBREXFG    ', 230.00,1,   1,   1,   1,0.97601,  18.4950
0 / END OF BUS DATA, BEGIN LOAD DATA
     1,'1 ',1,   1,   1,     0.000,     0.000,     0.000,     0.000,     0.000,     0.000,   1, 1
     2,'1 ',1,   1,   1,    75.422,    15.550,     0.000,     0.000,     0.000,     0.000,   1, 1
     3,'1 ',1,   1,   1,     0.000,     0.000,     0.000,     0.000,     0.000,     0.000,   1, 1
     4,'1 ',1,   1,   1,     0.000,     0.000,     0.000,     0.000,     0.000,     0.000,   1, 1
     5,'1 ',1,   1,   1,     0.000,     0.000,     0.000,     0.000,     0.000,     0.000,   1, 1
     6,'1 ',1,   1,   1,     0.000,     0.000,     0.000,     0.000,     0.000,     0.000,   1, 1
     7,'1 ',1,   1,   1,   139.753,    28.742,     0.000,     0.000,     0.000,     0.000,   1, 1
     8,'1 ',1,   1,   1,     0.000,     0.000,     0.000,     0.000,     0.000,     0.000,   1, 1
     9,'1 ',1,   1,   1,     0.000,     0.000,     0.000,     0.000,     0.000,     0.000,   1, 1
    10,'1 ',1,   1,   1,     0.000,     0.000,     0.000,     0.000,     0.000,     0.000,   1, 1
    11,'1 ',1,   1,   1,    57.676,    11.681,     0.000,     0.000,     0.000,     0.000,   1, 1
    11,'2 ',1,   1,   1,     0.000,     0.900,     0.000,     0.000,     0.000,     0.000,   1, 1
    12,'1 ',1,   1,   1,    55.457,    10.938,     0.000,     0.000,     0.000,     0.000,   1, 1
    13,'1 ',1,   1,   1,   106.478,    21.898,     0.000,     0.000,     0.000,     0.000,   1, 1
    14,'1 ',1,   1,   1,    97.605,    19.511,     0.000,     0.000,     0.000,     0.000,   1, 1
    15,'1 ',1,   1,   1,     0.000,     0.000,     0.000,     0.000,     0.000,     0.000,   1, 1
    16,'1 ',1,   1,   1,    66.549,    13.617,     0.000,     0.000,     0.000,     0.000,   1, 1
    17,'1 ',1,   1,   1,     0.000,     0.000,     0.000,     0.000,     0.000,     0.000,   1, 1
    18,'1 ',1,   1,   1,     0.000,     0.000,     0.000,     0.000,     0.000,     0.000,   1, 1
    19,'1 ',1,   1,   1,    66.549,    13.617,     0.000,     0.000,     0.000,     0.000,   1, 1
    19,'2 ',1,   1,   1,    95.842,    19.159,    41.075,     8.211,     0.000,     0.000,   1, 1
    20,'1 ',1,   1,   1,   150.844,    30.944,     0.000,     0.000,     0.000,     0.000,   1, 1
    21,'1 ',1,   1,   1,   206.301,    41.999,     0.000,     0.000,     0.000,     0.000,   1, 1
    24,'1 ',1,   1,   1,     0.000,     0.000,     0.000,     0.000,     0.000,     0.000,   1, 1
    25,'1 ',1,   1,   1,   150.844,    30.313,     0.000,     0.000,     0.000,     0.000,   1, 1
    26,'1 ',1,   1,   1,     0.000,     0.000,     0.000,     0.000,     0.000,     0.000,   1, 1
    27,'1 ',1,   1,   1,     0.000,     0.000,     0.000,     0.000,     0.000,     0.000,   1, 1
    28,'1 ',1,   1,   1,   246.231,    49.741,     0.000,     0.000,     0.000,     0.000,   1, 1
    29,'1 ',1,   1,   1,     0.000,     0.000,     0.000,     0.000,     0.000,     0.000,   1, 1
    30,'1 ',1,   1,   1,    77.640,    15.520,     0.000,     0.000,     0.000,     0.000,   1, 1
    31,'1 ',1,   1,   1,     0.000,     0.000,     0.000,     0.000,     0.000,     0.000,   1, 1
    32,'1 ',1,   1,   1,     0.000,     0.000,     0.000,     0.000,     0.000,     0.000,   1, 1
    33,'1 ',1,   1,   1,     0.000,     0.000,     0.000,     0.000,     0.000,     0.000,   1, 1
    34,'1 ',1,   1,   1,     0.000,     0.000,     0.000,     0.000,     0.000,     0.000,   1, 1
    35,'1 ',1,   1,   1,     0.000,     0.000,     0.000,     0.000,     0.000,     0.000,   1, 1
    36,'1 ',1,   1,   1,     0.000,     0.000,     0.000,     0.000,     0.000,     0.000,   1, 1
    37,'1 ',1,   1,   1,   259.541,    52.702,     0.000,     0.000,     0.000,     0.000,   1, 1
    39,'1 ',1,   1,   1,     0.000,     0.000,     0.000,     0.000,     0.000,     0.000,   1, 1
    40,'1 ',1,   1,   1,   141.971,    29.051,     0.000,     0.000,     0.000,     0.000,   1, 1
    41,'1 ',1,   1,   1,    99.823,    20.270,     0.000,     0.000,     0.000,     0.000,   1, 1
    42,'1 ',1,   1,   1,     0.000,     0.000,     0.000,     0.000,     0.000,     0.000,   1, 1
    43,'1 ',1,   1,   1,     0.000,     0.000,     0.000,     0.000,     0.000,     0.000,   1, 1
    45,'1 ',1,   1,   1,     0.000,     0.000,     0.000,     0.000,     0.000,     0.000,   1, 1
    46,'1 ',1,   1,   1,     0.000,     0.000,     0.000,     0.000,     0.000,     0.000,   1, 1
    48,'1 ',1,   1,   1,     0.000,     0.000,     0.000,     0.000,     0.000,     0.000,   1, 1
    49,'1 ',1,   1,   1,     150.0,     150.0     0.000,     0.000,     0.000,     0.000,   1, 1
    51,'1 ',1,   1,   1,     0.000,     0.000,     0.000,     0.000,     0.000,     0.000,   1, 1
    51,'2 ',1,   1,   1,     0.000,     0.000,     0.000,     0.000,     0.000,     0.000,   1, 1
    52,'1 ',1,   1,   1,     0.000,     0.000,     0.000,     0.000,     0.000,     0.000,   1, 1
    54,'1 ',1,   1,   1,     0.000,     0.000,     0.000,     0.000,     0.000,     0.000,   1, 1
    55,'1 ',1,   1,   1,     0.000,     0.000,     0.000,     0.000,     0.000,     0.000,   1, 1
    57,'1 ',1,   2,   2,     0.000,     0.000,     0.000,     0.000,     0.000,     0.000,   1, 1
0 / END OF LOAD DATA, BEGIN FIXED SHUNT DATA
 0 / END OF FIXED SHUNT DATA, BEGIN GENERATOR DATA
     1,'1 ',    17.74,     1.76,    10.00,     0.00,1.00000,     0,    24.00,      0.00000,      0.30200,      0.00000,      0.00000,1.00000,1,  100.0,    20.00,     0.00,   1,1.0000,,,,,,,  0, 1.0000
     3,'1 ',    17.74,     1.76,    10.00,     0.00,1.00000,     0,    24.00,      0.00000,      0.30200,      0.00000,      0.00000,1.00000,1,  100.0,    20.00,     0.00,   1,1.0000,,,,,,,  0, 1.0000
     4,'1 ',    67.91,     6.74,    30.00,   -25.00,1.00000,     0,    89.00,      0.00000,      0.39000,      0.00000,      0.00000,1.00000,1,  100.0,    76.00,     0.00,   1,1.0000,,,,,,,  0, 1.0000
     5,'1 ',    67.91,     6.74,    30.00,   -25.00,1.00000,     0,    89.00,      0.00000,      0.39000,      0.00000,      0.00000,1.00000,1,  100.0,    76.00,     0.00,   1,1.0000,,,,,,,  0, 1.0000
     6,'1 ',    17.74,     0.00,    10.00,     0.00,1.00000,     0,    24.00,      0.00000,      0.30200,      0.00000,      0.00000,1.00000,1,  100.0,    20.00,     0.00,   1,1.0000,,,,,,,  0, 1.0000
     8,'1 ',    17.74,     4.06,    10.00,     0.00,1.00000,     0,    24.00,      0.00000,      0.30200,      0.00000,      0.00000,1.00000,1,  100.0,    20.00,     0.00,   1,1.0000,,,,,,,  0, 1.0000
     9,'1 ',    67.91,     6.80,    30.00,   -25.00,1.00000,     0,    89.00,      0.00000,      0.39000,      0.00000,      0.00000,1.00000,1,  100.0,    76.00,     0.00,   1,1.0000,,,,,,,  0, 1.0000
    10,'1 ',    67.91,    16.26,    30.00,   -25.00,1.12319,     0,    89.00,      0.00000,      0.39000,      0.00000,      0.00000,1.00000,1,  100.0,    76.00,     0.00,   1,1.0000,,,,,,,  0, 1.0000
    15,'1 ',    79.83,     3.45,    60.00,     0.00,1.00000,     0,   118.00,      0.00000,      0.24500,      0.00000,      0.00000,1.00000,1,  100.0,   100.00,     0.00,   1,1.0000,,,,,,,  0, 1.0000
    17,'1 ',    79.83,    25.72,    60.00,     0.00,1.00000,     0,   118.00,      0.00000,      0.24500,      0.00000,      0.00000,1.00000,1,  100.0,   100.00,     0.00,   1,1.0000,,,,,,,  0, 1.0000
    18,'1 ',    99.76,    27.75,    60.00,     0.00,1.00000,     0,   118.00,      0.00000,      0.24500,      0.00000,      0.00000,1.00000,1,  100.0,   100.00,     0.00,   1,1.0000,,,,,,,  0, 1.0000
    24,'1 ',    25.37,     0.00,    80.00,     0.00,1.00000,     0,   232.00,      0.00000,      0.21000,      0.00000,      0.00000,1.00000,1,  100.0,   197.00,     0.00,   1,1.0000,,,,,,,  0, 1.0000
    26,'1 ',    25.37,    33.80,    80.00,     0.00,1.00000,     0,   232.00,      0.00000,      0.21000,      0.00000,      0.00000,1.00000,1,  100.0,   197.00,     0.00,   1,1.0000,,,,,,,  0, 1.0000
    27,'1 ',    11.83,    33.66,    80.00,     0.00,1.00000,     0,   232.00,      0.00000,      0.21000,      0.00000,      0.00000,1.00000,1,  100.0,   197.00,     0.00,   1,1.0000,,,,,,,  0, 1.0000
    29,'1 ',    11.83,     0.00,     6.00,     0.00,1.00000,     0,    14.00,      0.00000,      0.26600,      0.00000,      0.00000,1.00000,1,  100.0,    12.00,     0.00,   1,1.0000,,,,,,,  0, 1.0000
    31,'1 ',    11.83,     5.53,     6.00,     0.00,1.00000,     0,    14.00,      0.00000,      0.26600,      0.00000,      0.00000,1.00000,1,  100.0,    12.00,     0.00,   1,1.0000,,,,,,,  0, 1.0000
    32,'1 ',    11.83,     5.53,     6.00,     0.00,1.00000,     0,    14.00,      0.00000,      0.26600,      0.00000,      0.00000,1.00000,1,  100.0,    12.00,     0.00,   1,1.0000,,,,,,,  0, 1.0000
    33,'1 ',    11.83,     5.53,     6.00,     0.00,1.00000,     0,    14.00,      0.00000,      0.26600,      0.00000,      0.00000,1.00000,1,  100.0,    12.00,     0.00,   1,1.0000,,,,,,,  0, 1.0000
    34,'1 ',    11.83,     5.53,     6.00,     0.00,1.00000,     0,    14.00,      0.00000,      0.26600,      0.00000,      0.00000,1.00000,1,  100.0,    12.00,     0.00,   1,1.0000,,,,,,,  0, 1.0000
    35,'1 ',   154.83,    72.06,    80.00,   -50.00,1.00000,     0,   182.00,      0.00000,      0.23000,      0.00000,      0.00000,1.00000,1,  100.0,   255.00,     0.00,   1,1.0000,,,,,,,  0, 1.0000
    36,'1 ',   154.83,   -24.18,    80.00,   -50.00,1.00000,     0,   182.00,      0.00000,      0.23000,      0.00000,      0.00000,1.00000,1,  100.0,   255.00,     0.00,   1,1.0000,,,,,,,  0, 1.0000
    39,'1 ',   190.81,   -20.27,   200.00,   -50.00,1.00000,     0,   471.00,      0.00000,      0.30000,      0.00000,      0.00000,1.00000,1,  100.0,   400.00,     0.00,   1,1.0000,,,,,,,  0, 1.0000
    43,'1 ',   162.20,    68.57,   200.00,   -50.00,1.00000,     0,   471.00,      0.00000,      0.30000,      0.00000,      0.00000,1.00000,1,  100.0,   400.00,     0.00,   1,1.0000,,,,,,,  0, 1.0000
    45,'1 ',    49.83,     1.03,    16.00,   -10.00,1.00000,     0,    53.00,      0.00000,      0.38000,      0.00000,      0.00000,1.00000,1,  100.0,    50.00,     0.00,   1,1.0000,,,,,,,  0, 1.0000
    46,'1 ',    46.50,     0.58,    16.00,   -10.00,1.00000,     0,    53.00,      0.00000,      0.38000,      0.00000,      0.00000,1.00000,1,  100.0,    50.00,     0.00,   1,1.0000,,,,,,,  0, 1.0000
    48,'1 ',    49.83,     9.27,    16.00,   -10.00,1.00000,     0,    53.00,      0.00000,      0.38000,      0.00000,      0.00000,1.00000,1,  100.0,    50.00,     0.00,   1,1.0000,,,,,,,  0, 1.0000
    49,'1 ',    46.50,     8.81,    16.00,   -10.00,1.00000,     0,    53.00,      0.00000,      0.38000,      0.00000,      0.00000,1.00000,1,  100.0,    50.00,     0.00,   1,1.0000,,,,,,,  0, 1.0000
    51,'1 ',    49.83,     0.57,    16.00,   -10.00,1.00000,     0,    53.00,      0.00000,      0.38000,      0.00000,      0.00000,1.00000,1,  100.0,    50.00,     0.00,   1,1.0000,,,,,,,  0, 1.0000
    51,'2 ',    49.83,     0.57,    16.00,   -10.00,1.00000,     0,    53.00,      0.00000,      0.38000,      0.00000,      0.00000,1.00000,1,  100.0,    50.00,     0.00,   1,1.0000,,,,,,,  0, 1.0000
    52,'1 ',   154.83,    12.98,    80.00,   -50.00,1.00000,     0,   182.00,      0.00000,      0.23000,      0.00000,      0.00000,1.00000,1,  100.0,   155.00,     0.00,   1,1.0000,,,,,,,  0, 1.0000
    54,'1 ',   154.83,    12.98,    80.00,   -50.00,1.00000,     0,   182.00,      0.00000,      0.23000,      0.00000,      0.00000,1.00000,1,  100.0,   155.00,     0.00,   1,1.0000,,,,,,,  0, 1.0000
    55,'1 ',   207.32,    16.70,   150.00,   -25.00,1.00000,     0,   412.00,      0.00000,      0.24000,      0.00000,      0.00000,1.00000,1,  100.0,   350.00,     0.00,   1,1.0000,,,,,,,  0, 1.0000
    57,'1 ',     0.05,     8.10,   120.00,  -419.97,1.00000,     0,   999.00,      0.00000,      0.10000,      0.00000,      0.00000,1.00000,1,  100.0,   500.00,     0.00,   1,1.0000,,,,,,,  0, 1.0000
 0 / END OF GENERATOR DATA, BEGIN BRANCH DATA
     2,      7,'1 ',    0.30000E-02,    0.14000E-01,    0.46100    ,  175.00,  193.00,  200.00,  0.00000,  0.00000,  0.00000,  0.00000,1,  2,   0.00,   1,1.0000,,,,,,,
     2,     11,'1 ',    0.55000E-01,    0.21100    ,    0.57000E-01,  175.00,  193.00,  200.00,  0.00000,  0.00000,  0.00000,  0.00000,1,  2,   0.00,   1,1.0000,,,,,,,
     2,     13,'1 ',    0.22000E-01,    0.85000E-01,    0.23000E-01,  175.00,  193.00,  200.00,  0.00000,  0.00000,  0.00000,  0.00000,1,  1,   0.00,   1,1.0000,,,,,,,
     7,     12,'1 ',    0.33000E-01,    0.12700    ,    0.34000E-01,  175.00,  193.00,  200.00,  0.00000,  0.00000,  0.00000,  0.00000,1,  1,   0.00,   1,1.0000,,,,,,,
     7,     14,'1 ',    0.50000E-01,    0.19200    ,    0.52000E-01,  175.00,  193.00,  200.00,  0.00000,  0.00000,  0.00000,  0.00000,1,  1,   0.00,   1,1.0000,,,,,,,
    11,     20,'1 ',    0.31000E-01,    0.11900    ,    0.32000E-01,  175.00,  208.00,  220.00,  0.00000,  0.00000,  0.00000,  0.00000,1,  1,   0.00,   1,1.0000,,,,,,,
    12,     20,'1 ',    0.27000E-01,    0.10400    ,    0.28000E-01,  175.00,  208.00,  220.00,  0.00000,  0.00000,  0.00000,  0.00000,1,  1,   0.00,   1,1.0000,,,,,,,
    13,     21,'1 ',    0.23000E-01,    0.88000E-01,    0.24000E-01,  175.00,  208.00,  220.00,  0.00000,  0.00000,  0.00000,  0.00000,1,  1,   0.00,   1,1.0000,,,,,,,
    14,     21,'1 ',    0.14000E-01,    0.61000E-01,     2.4590    ,  175.00,  208.00,  220.00,  0.00000,  0.00000,  0.00000,  0.00000,1,  1,   0.00,   1,1.0000,,,,,,,
    16,     19,'1 ',    0.16000E-01,    0.61000E-01,    0.17000E-01,  175.00,  208.00,  220.00,  0.00000,  0.00000,  0.00000,  0.00000,1,  1,   0.00,   1,1.0000,,,,,,,
    19,     20,'1 ',    0.43000E-01,    0.16500    ,    0.45000E-01,  175.00,  208.00,  220.00,  0.00000,  0.00000,  0.00000,  0.00000,1,  1,   0.00,   1,1.0000,,,,,,,
    19,     21,'1 ',    0.43000E-01,    0.16500    ,    0.45000E-01,  175.00,  208.00,  220.00,  0.00000,  0.00000,  0.00000,  0.00000,1,  1,   0.00,   1,1.0000,,,,,,,
    22,     25,'1 ',    0.60000E-02,    0.48000E-01,    0.10000    ,  500.00,  600.00,  625.00,  0.00000,  0.00000,  0.00000,  0.00000,1,  1,   0.00,   1,1.0000,,,,,,,
    22,     28,'1 ',    0.50000E-02,    0.42000E-01,    0.88000E-01,  500.00,  600.00,  625.00,  0.00000,  0.00000,  0.00000,  0.00000,1,  1,   0.00,   1,1.0000,,,,,,,
    23,     25,'1 ',    0.60000E-02,    0.48000E-01,    0.10000    ,  500.00,  600.00,  625.00,  0.00000,  0.00000,  0.00000,  0.00000,1,  1,   0.00,   1,1.0000,,,,,,,
    23,     53,'1 ',    0.12000E-01,    0.97000E-01,     0.0000    ,  500.00,  600.00,  625.00,  0.00000,  0.20300,  0.00000,  0.10150,1,  1,   0.00,   1,1.0000,,,,,,,
    25,     53,'1 ',    0.11000E-01,    0.87000E-01,     0.0000    ,  500.00,  600.00,  625.00,  0.17400,  0.09100,  0.00000,  0.09100,1,  1,   0.00,   1,1.0000,,,,,,,
    28,     37,'1 ',    0.50000E-02,    0.59000E-01,    0.82000E-01,  500.00,  600.00,  625.00,  0.00000,  0.00000,  0.00000,  0.00000,1,  1,   0.00,   1,1.0000,,,,,,,
    30,     37,'1 ',    0.20000E-02,    0.17000E-01,    0.36000E-01,  500.00,  600.00,  625.00,  0.00000,  0.00000,  0.00000,  0.00000,1,  1,   0.00,   1,1.0000,,,,,,,
    30,     44,'1 ',    0.60000E-02,    0.49000E-01,    0.10300    ,  500.00,  600.00,  625.00,  0.00000,  0.00000,  0.00000,  0.00000,1,  1,   0.00,   1,1.0000,,,,,,,
    30,     44,'2 ',    0.60000E-02,    0.49000E-01,    0.10300    ,  500.00,  600.00,  625.00,  0.00000,  0.00000,  0.00000,  0.00000,1,  1,   0.00,   1,1.0000,,,,,,,
    30,     56,'1 ',    0.70000E-02,    0.52000E-01,    0.10900    ,  500.00,  600.00,  625.00,  0.00000,  0.00000,  0.00000,  0.00000,1,  1,   0.00,   1,1.0000,,,,,,,
    37,     38,'1 ',    0.30000E-02,    0.26000E-01,    0.55000E-01,  500.00,  600.00,  625.00,  0.00000,  0.00000,  0.00000,  0.00000,1,  1,   0.00,   1,1.0000,,,,,,,
    37,     41,'1 ',    0.30000E-02,    0.23000E-01,    0.49000E-01,  500.00,  600.00,  625.00,  0.00000,  0.00000,  0.00000,  0.00000,1,  1,   0.00,   1,1.0000,,,,,,,
    38,     40,'1 ',    0.20000E-02,    0.14000E-01,    0.30000E-01,  500.00,  600.00,  625.00,  0.00000,  0.00000,  0.00000,  0.00000,1,  1,   0.00,   1,1.0000,,,,,,,
    38,     50,'1 ',    0.14000E-01,    0.10500    ,    0.22100    ,  500.00,  600.00,  625.00,  0.00000,  0.00000,  0.00000,  0.00000,1,  1,   0.00,   1,1.0000,,,,,,,
    40,     44,'1 ',    0.30000E-02,    0.26000E-01,    0.55000E-01,  500.00,  600.00,  625.00,  0.00000,  0.00000,  0.00000,  0.00000,1,  1,   0.00,   1,1.0000,,,,,,,
    40,     44,'2 ',    0.30000E-02,    0.26000E-01,    0.55000E-01,  500.00,  600.00,  625.00,  0.00000,  0.00000,  0.00000,  0.00000,1,  1,   0.00,   1,1.0000,,,,,,,
    41,     42,'1 ',    0.50000E-02,    0.40000E-01,    0.83000E-01,  500.00,  600.00,  625.00,  0.00000,  0.00000,  0.00000,  0.00000,1,  1,   0.00,   1,1.0000,,,,,,,
    41,     42,'2 ',    0.50000E-02,    0.40000E-01,    0.83000E-01,  500.00,  600.00,  625.00,  0.00000,  0.00000,  0.00000,  0.00000,1,  1,   0.00,   1,1.0000,,,,,,,
    42,     53,'1 ',    0.30000E-02,    0.22000E-01,    0.46000E-01,  500.00,  600.00,  625.00,  0.00000,  0.00000,  0.00000,  0.00000,1,  1,   0.00,   1,1.0000,,,,,,,
    42,     53,'2 ',    0.30000E-02,    0.22000E-01,    0.46000E-01,  500.00,  600.00,  625.00,  0.00000,  0.00000,  0.00000,  0.00000,1,  1,   0.00,   1,1.0000,,,,,,,
    44,     47,'1 ',    0.90000E-02,    0.68000E-01,    0.14200    ,  500.00,  600.00,  625.00,  0.00000,  0.00000,  0.00000,  0.00000,1,  1,   0.00,   1,1.0000,,,,,,,
    25,     57,'1 ',    0.10000E-01,    0.75000E-01,    0.15800    ,    0.00,    0.00,    0.00,  0.00000,  0.00000,  0.00000,  0.00000,1,  1,   0.00,   1,1.0000,,,,,,,
    53,     57,'1 ',    0.10000E-01,    0.74000E-01,    0.15500    ,    0.00,    0.00,    0.00,  0.00000,  0.00000,  0.00000,  0.00000,1,  1,   0.00,   1,1.0000,,,,,,,
    47,     50,'1 ',    0.43000E-01,    0.16500    ,     0.0000    ,    0.00,    0.00,    0.00,  0.00000,  0.00000,  0.00000,  0.00000,1,  1,   0.00,   1,1.0000,,,,,,,
0 / END OF BRANCH DATA, BEGIN TRANSFORMER DATA
    47,    46, 0,'1 ',1,1,1,   0.00000,   0.00000, 2,'', 1,   1,1.0000,,,,,,,
   0.01403,   0.36113
0.98730, 0,   0.000,    0.00,    0.00,    0.00, 0, 0, 1.1, 0.9, 1.1, 0.9, 33, 0, 0.0, 0.0
 1., 0.
    47,    45, 0,'1 ',1,1,1,   0.00000,   0.00000, 2,'', 1,   1,1.0000,,,,,,,
   0.01403,   0.36113
0.98730, 0,   0.000,    0.00,    0.00,    0.00, 0, 0, 1.1, 0.9, 1.1, 0.9, 33, 0, 0.0, 0.0
 1., 0.
    50,    49, 0,'1 ',1,1,1,   0.00000,   0.00000, 2,'', 1,   1,1.0000,,,,,,,
   0.01403,   0.36113
1.02500, 0,   0.000,    0.00,    0.00,    0.00, 0, 0, 1.1, 0.9, 1.1, 0.9, 33, 0, 0.0, 0.0
 1., 0.
    50,    48, 0,'1 ',1,1,1,   0.00000,   0.00000, 2,'', 1,   1,1.0000,,,,,,,
   0.01403,   0.36113
1.02500, 0,   0.000,    0.00,    0.00,    0.00, 0, 0, 1.1, 0.9, 1.1, 0.9, 33, 0, 0.0, 0.0
 1., 0.
     1,     2, 0,'1 ',1,1,1,   0.00000,   0.00000, 2,'', 1,   1,1.0000,,,,,,,
   0.00000,   0.54167
1.00000, 0,   0.000,    0.00,    0.00,    0.00, 1,       2,     1.1000    ,    0.90000    ,     1.0125    ,    0.98750    , 17,  0, 0., 0.
 1.00000, 0.
     2,     3, 0,'1 ',1,1,1,   0.00000,   0.00000, 2,'', 1,   1,1.0000,,,,,,,
   0.00000,   0.54167
1.00000, 0,   0.000,    0.00,    0.00,    0.00, 1,       2,     1.1000    ,    0.90000    ,     1.0125    ,    0.98750    , 17,  0, 0., 0.
 1.00000, 0.
     2,     4, 0,'1 ',1,1,1,   0.00000,   0.00000, 2,'', 1,   1,1.0000,,,,,,,
   0.00000,   0.14607
1.00000, 0,   0.000,    0.00,    0.00,    0.00, 1,       2,     1.1000    ,    0.90000    ,     1.0125    ,    0.98750    , 17,  0, 0., 0.
 1.00000, 0.
     2,     5, 0,'1 ',1,1,1,   0.00000,   0.00000, 2,'', 1,   1,1.0000,,,,,,,
   0.00000,   0.14607
1.00000, 0,   0.000,    0.00,    0.00,    0.00, 1,       2,     1.1000    ,    0.90000    ,     1.0125    ,    0.98750    , 17,  0, 0., 0.
 1.00000, 0.
     6,     7, 0,'1 ',1,1,1,   0.00000,   0.00000, 2,'', 1,   1,1.0000,,,,,,,
   0.00000,   0.54167
1.01250, 0,   0.000,    0.00,    0.00,    0.00, 1,       7,     1.1000    ,    0.90000    ,     1.0125    ,    0.98750    , 17,  0, 0., 0.
 1.00000, 0.
     7,     8, 0,'1 ',1,1,1,   0.00000,   0.00000, 2,'', 1,   1,1.0000,,,,,,,
   0.00000,   0.54167
1.01250, 0,   0.000,    0.00,    0.00,    0.00, 1,       7,     1.1000    ,    0.90000    ,     1.0125    ,    0.98750    , 17,  0, 0., 0.
 1.00000, 0.
     7,     9, 0,'1 ',1,1,1,   0.00000,   0.00000, 2,'', 1,   1,1.0000,,,,,,,
   0.00000,   0.14607
1.00000, 0,   0.000,    0.00,    0.00,    0.00, 1,       7,     1.1000    ,    0.90000    ,     1.0125    ,    0.98750    , 17,  0, 0., 0.
 1.00000, 0.
     7,    10, 0,'1 ',1,1,1,   0.00000,   0.00000, 2,'', 1,   1,1.0000,,,,,,,
   0.00000,   0.14607
0.90000, 0,   0.000,    0.00,    0.00,    0.00, 1,       7,     1.1000    ,    0.90000    ,     1.0125    ,    0.98750    , 17,  0, 0., 0.
 1.00000, 0.
    15,    16, 0,'1 ',1,1,1,   0.00000,   0.00000, 2,'', 1,   1,1.0000,,,,,,,
   0.00000,   0.11017
1.01250, 0,   0.000,    0.00,    0.00,    0.00, 1,      16,     1.1000    ,    0.90000    ,     1.0125    ,    0.98750    , 17,  0, 0., 0.
 1.00000, 0.
    16,    17, 0,'1 ',1,1,1,   0.00000,   0.00000, 2,'', 1,   1,1.0000,,,,,,,
   0.00000,   0.11017
1.01250, 0,   0.000,    0.00,    0.00,    0.00, 1,      16,     1.1000    ,    0.90000    ,     1.0125    ,    0.98750    , 17,  0, 0., 0.
 1.00000, 0.
    16,    18, 0,'1 ',1,1,1,   0.00000,   0.00000, 2,'', 1,   1,1.0000,,,,,,,
   0.00000,   0.11017
1.01250, 0,   0.000,    0.00,    0.00,    0.00, 1,      16,     1.1000    ,    0.90000    ,     1.0125    ,    0.98750    , 17,  0, 0., 0.
 1.00000, 0.
    24,    25, 0,'1 ',1,1,1,   0.00000,   0.00000, 2,'', 1,   1,1.0000,,,,,,,
   0.00000,   0.05603
1.01078, 0,   0.000,    0.00,    0.00,    0.00, 1,      25,     1.0983    ,    0.89828    ,     1.0125    ,    0.98750    , 17,  0, 0., 0.
 1.00000, 0.
    25,    26, 0,'1 ',1,1,1,   0.00000,   0.00000, 2,'', 1,   1,1.0000,,,,,,,
   0.00000,   0.05603
1.01078, 0,   0.000,    0.00,    0.00,    0.00, 1,      25,     1.0983    ,    0.89828    ,     1.0125    ,    0.98750    , 17,  0, 0., 0.
 1.00000, 0.
    25,    27, 0,'1 ',1,1,1,   0.00000,   0.00000, 2,'', 1,   1,1.0000,,,,,,,
   0.00000,   0.05603
1.01078, 0,   0.000,    0.00,    0.00,    0.00, 1,      25,     1.0983    ,    0.89828    ,     1.0125    ,    0.98750    , 17,  0, 0., 0.
 1.00000, 0.
    29,    30, 0,'1 ',1,1,1,   0.00000,   0.00000, 2,'', 1,   1,1.0000,,,,,,,
   0.00000,   0.92857
1.03578, 0,   0.000,    0.00,    0.00,    0.00, 1,      30,     1.0983    ,    0.89828    ,     1.0125    ,    0.98750    , 17,  0, 0., 0.
 1.00000, 0.
    30,    31, 0,'1 ',1,1,1,   0.00000,   0.00000, 2,'', 1,   1,1.0000,,,,,,,
   0.00000,   0.92857
1.03578, 0,   0.000,    0.00,    0.00,    0.00, 1,      30,     1.0983    ,    0.89828    ,     1.0125    ,    0.98750    , 17,  0, 0., 0.
 1.00000, 0.
    30,    32, 0,'1 ',1,1,1,   0.00000,   0.00000, 2,'', 1,   1,1.0000,,,,,,,
   0.00000,   0.92857
1.03578, 0,   0.000,    0.00,    0.00,    0.00, 1,      30,     1.0983    ,    0.89828    ,     1.0125    ,    0.98750    , 17,  0, 0., 0.
 1.00000, 0.
    30,    33, 0,'1 ',1,1,1,   0.00000,   0.00000, 2,'', 1,   1,1.0000,,,,,,,
   0.00000,   0.92857
1.03578, 0,   0.000,    0.00,    0.00,    0.00, 1,      30,     1.0983    ,    0.89828    ,     1.0125    ,    0.98750    , 17,  0, 0., 0.
 1.00000, 0.
    30,    34, 0,'1 ',1,1,1,   0.00000,   0.00000, 2,'', 1,   1,1.0000,,,,,,,
   0.00000,   0.92857
1.03578, 0,   0.000,    0.00,    0.00,    0.00, 1,      30,     1.0983    ,    0.89828    ,     1.0125    ,    0.98750    , 17,  0, 0., 0.
 1.00000, 0.
    30,    35, 0,'1 ',1,1,1,   0.00000,   0.00000, 2,'', 1,   1,1.0000,,,,,,,
   0.00000,   0.07143
1.03578, 0,   0.000,    0.00,    0.00,    0.00, 1,      30,     1.0983    ,    0.89828    ,     1.0125    ,    0.98750    , 17,  0, 0., 0.
 1.00000, 0.
    36,    37, 0,'1 ',1,1,1,   0.00000,   0.00000, 2,'', 1,   1,1.0000,,,,,,,
   0.00000,   0.07143
1.04828, 0,   0.000,    0.00,    0.00,    0.00, 1,      37,     1.0983    ,    0.89828    ,     1.0125    ,    0.98750    , 17,  0, 0., 0.
 1.00000, 0.
    39,    40, 0,'1 ',1,1,1,   0.00000,   0.00000, 2,'', 1,   1,1.0000,,,,,,,
   0.00000,   0.03185
1.02328, 0,   0.000,    0.00,    0.00,    0.00, 1,      40,     1.0983    ,    0.89828    ,     1.0125    ,    0.98750    , 17,  0, 0., 0.
 1.00000, 0.
    43,    44, 0,'1 ',1,1,1,   0.00000,   0.00000, 2,'', 1,   1,1.0000,,,,,,,
   0.00000,   0.03185
0.98578, 0,   0.000,    0.00,    0.00,    0.00, 1,      44,     1.0983    ,    0.89828    ,     1.0125    ,    0.98750    , 17,  0, 0., 0.
 1.00000, 0.
    47,    58, 0,'1 ',1,1,1,   0.00000,   0.00000, 2,'', 1,   1,1.0000,,,,,,,
   0.00097,   0.03044
0.98750, 0,   0.000,    0.00,    0.00,    0.00, 1,      47,     1.1500    ,    0.95000    ,     1.0125    ,    0.98750    , 17,  0, 0., 0.
 1.00000, 0.
    50,    59, 0,'1 ',1,1,1,   0.00000,   0.00000, 2,'', 1,   1,1.0000,,,,,,,
   0.00097,   0.03044
1.02500, 0,   0.000,    0.00,    0.00,    0.00, 1,      50,     1.1500    ,    0.95000    ,     1.0125    ,    0.98750    , 17,  0, 0., 0.
 1.00000, 0.
    50,    51, 0,'1 ',1,1,1,   0.00000,   0.00000, 2,'', 1,   1,1.0000,,,,,,,
   0.00000,   0.07812
0.99828, 0,   0.000,    0.00,    0.00,    0.00, 1,      50,     1.0983    ,    0.89828    ,     1.0125    ,    0.98750    , 17,  0, 0., 0.
 1.00000, 0.
    52,    53, 0,'1 ',1,1,1,   0.00000,   0.00000, 2,'', 1,   1,1.0000,,,,,,,
   0.00000,   0.07143
1.00000, 0,   0.000,    0.00,    0.00,    0.00, 1,      53,     1.1500    ,    0.95000    ,     1.0125    ,    0.98750    , 17,  0, 0., 0.
 1.00000, 0.
    53,    54, 0,'1 ',1,1,1,   0.00000,   0.00000, 2,'', 1,   1,1.0000,,,,,,,
   0.00000,   0.07143
1.00000, 0,   0.000,    0.00,    0.00,    0.00, 1,      53,     1.1500    ,    0.95000    ,     1.0125    ,    0.98750    , 17,  0, 0., 0.
 1.00000, 0.
    53,    55, 0,'1 ',1,1,1,   0.00000,   0.00000, 2,'', 1,   1,1.0000,,,,,,,
   0.00000,   0.03155
1.00000, 0,   0.000,    0.00,    0.00,    0.00, 1,      53,     1.1500    ,    0.95000    ,     1.0125    ,    0.98750    , 17,  0, 0., 0.
 1.00000, 0.
    11,    56, 0,'1 ',1,1,1,   0.00000,   0.00000, 1,'', 1,   1,1.0000,,,,,,,
   0.00200,   0.08400
1.02032, 0,   0.000,  400.00,  510.00,  600.00, 1,      11,     1.1607    ,    0.91588    ,     1.0125    ,    0.98750    , 19,  0, 0., 0.
 1.00000, 0.
    20,    22, 0,'1 ',1,1,1,   0.00000,   0.00000, 1,'', 1,   1,1.0000,,,,,,,
   0.00200,   0.08400
1.04800, 0,   0.000,  400.00,  510.00,  600.00, 1,      20,     1.1607    ,    0.91588    ,     1.0125    ,    0.98750    , 19,  0, 0., 0.
 1.00000, 0.
    20,    23, 0,'1 ',1,1,1,   0.00000,   0.00000, 1,'', 1,   1,1.0000,,,,,,,
   0.00200,   0.08400
1.04800, 0,   0.000,  400.00,  510.00,  600.00, 1,      20,     1.1607    ,    0.91588    ,     1.0125    ,    0.98750    , 19,  0, 0., 0.
 1.00000, 0.
    21,    22, 0,'1 ',1,1,1,   0.00000,   0.00000, 1,'', 1,   1,1.0000,,,,,,,
   0.00200,   0.08400
1.00612, 0,   0.000,  400.00,  510.00,  600.00, 1,      21,     1.1607    ,    0.91588    ,     1.0125    ,    0.98750    , 19,  0, 0., 0.
 1.00000, 0.
    21,    23, 0,'1 ',1,1,1,   0.00000,   0.00000, 1,'', 1,   1,1.0000,,,,,,,
   0.00200,   0.08400
1.00612, 0,   0.000,  400.00,  510.00,  600.00, 1,      21,     1.1607    ,    0.91588    ,     1.0125    ,    0.98750    , 19,  0, 0., 0.
 1.00000, 0.
0 / END OF TRANSFORMER DATA, BEGIN AREA DATA
    1,     0,     0.00,     5.00,'NTC_AREA    '
    2,     0,     0.00,     5.00,'EXTERNAL    '
0 / END OF AREA DATA, BEGIN TWO-TERMINAL DC DATA
0 / END OF TWO-TERMINAL DC DATA, BEGIN VSC DC LINE DATA
0 / END OF VSC DC LINE DATA, BEGIN IMPEDANCE CORRECTION TABLE DATA
0 / END OF IMPEDANCE CORRECTION TABLE DATA, BEGIN MULTI-TERMINAL DC DATA
0 / END OF MULTI-TERMINAL DC DATA, BEGIN MULTI-SECTION LINE DATA
0 / END OF MULTI-SECTION LINE DATA, BEGIN ZONE DATA
    1,'ION.MAIN    '
    2,'EXTERNAL    '
0 / END OF ZONE DATA, BEGIN INTER-AREA TRANSFER DATA
0 / END OF INTER-AREA TRANSFER DATA, BEGIN OWNER DATA
   1, 'Owner1      '
0 / END OF OWNER DATA, BEGIN FACTS DEVICE DATA
0 / END OF FACTS DEVICE DATA, BEGIN SWITCHED SHUNT DATA
    14,1,0,1,1.02000,0.98000,     0, 100.0, ' ', -100.00, 1, -100.00
    28,2,0,1,1.04000,1.04000,     0, 100.0, ' ',  200.00, 1,  -50.00, 1,  200.00
0 / END OF SWITCHED SHUNT DATA
Q
